LTspice 26.0.1 for Windows
Circuit: C:\ft\ltspice_llm_pipeline_vnext_20260303\pipeline\out_all_labs_rich_v1_train\Lab3_2_V1_only\golden\Lab3_2_V1_only__golden.cir
Start Time: Thu Mar 26 18:09:23 2026
solver = Normal
Maximum thread count: 24
tnom = 27
temp = 27
method = trap
Direct Newton iteration succeeded in finding operating point.
Total elapsed time: 0.054 seconds.

Files loaded:
C:\ft\ltspice_llm_pipeline_vnext_20260303\pipeline\out_all_labs_rich_v1_train\Lab3_2_V1_only\golden\Lab3_2_V1_only__golden.cir
C:\Users\bchar\AppData\Local\LTspice\lib\cmp\standard.dio

v_n001_max: MAX(V(N001))=1.07806313038 FROM 0 TO 0.01
v_n001_min: MIN(V(N001))=1.07806301117 FROM 0 TO 0.01
v_n001_rms: RMS(V(N001))=1.07806301117 FROM 0 TO 0.01
v_n001_avg: AVG(V(N001))=1.07806301117 FROM 0 TO 0.01
v_n001_pp: PP(V(N001))=1.19209289551e-07 FROM 0 TO 0.01
v_n002_max: MAX(V(N002))=5 FROM 0 TO 0.01
v_n002_min: MIN(V(N002))=5 FROM 0 TO 0.01
v_n002_rms: RMS(V(N002))=5 FROM 0 TO 0.01
v_n002_avg: AVG(V(N002))=5 FROM 0 TO 0.01
v_n002_pp: PP(V(N002))=0 FROM 0 TO 0.01
v_n003_max: MAX(V(N003))=0.84808743 FROM 0 TO 0.01
v_n003_min: MIN(V(N003))=0.848087251186 FROM 0 TO 0.01
v_n003_rms: RMS(V(N003))=0.848087251187 FROM 0 TO 0.01
v_n003_avg: AVG(V(N003))=0.848087251187 FROM 0 TO 0.01
v_n003_pp: PP(V(N003))=1.78813934326e-07 FROM 0 TO 0.01
v_n004_max: MAX(V(N004))=0.330387681723 FROM 0 TO 0.01
v_n004_min: MIN(V(N004))=0.330387592316 FROM 0 TO 0.01
v_n004_rms: RMS(V(N004))=0.330387681723 FROM 0 TO 0.01
v_n004_avg: AVG(V(N004))=0.330387681722 FROM 0 TO 0.01
v_n004_pp: PP(V(N004))=8.94069671631e-08 FROM 0 TO 0.01
i_d1_max: MAX(I(D1))=0.000229975747061 FROM 0 TO 0.01
i_d1_min: MIN(I(D1))=0.000229975688853 FROM 0 TO 0.01
i_d1_rms: RMS(I(D1))=0.000229975747061 FROM 0 TO 0.01
i_d1_avg: AVG(I(D1))=0.000229975747061 FROM 0 TO 0.01
i_d1_pp: PP(I(D1))=5.82076609135e-11 FROM 0 TO 0.01
i_r1_max: MAX(I(R1))=0.000769007252529 FROM 0 TO 0.01
i_r1_min: MIN(I(R1))=0.000769007252529 FROM 0 TO 0.01
i_r1_rms: RMS(I(R1))=0.000769007252529 FROM 0 TO 0.01
i_r1_avg: AVG(I(R1))=0.000769007252529 FROM 0 TO 0.01
i_r1_pp: PP(I(R1))=0 FROM 0 TO 0.01
i_r2_max: MAX(I(R2))=-0.00053903152002 FROM 0 TO 0.01
i_r2_min: MIN(I(R2))=-0.000539031578228 FROM 0 TO 0.01
i_r2_rms: RMS(I(R2))=0.00053903152002 FROM 0 TO 0.01
i_r2_avg: AVG(I(R2))=-0.00053903152002 FROM 0 TO 0.01
i_r2_pp: PP(I(R2))=5.82076609135e-11 FROM 0 TO 0.01
i_r3_max: MAX(I(R3))=-0.000165193807334 FROM 0 TO 0.01
i_r3_min: MIN(I(R3))=-0.000165193850989 FROM 0 TO 0.01
i_r3_rms: RMS(I(R3))=0.000165193850989 FROM 0 TO 0.01
i_r3_avg: AVG(I(R3))=-0.000165193850989 FROM 0 TO 0.01
i_r3_pp: PP(I(R3))=4.36557456851e-11 FROM 0 TO 0.01
i_r4_max: MAX(I(R4))=0.000229975747061 FROM 0 TO 0.01
i_r4_min: MIN(I(R4))=0.000229975688853 FROM 0 TO 0.01
i_r4_rms: RMS(I(R4))=0.000229975747061 FROM 0 TO 0.01
i_r4_avg: AVG(I(R4))=0.000229975747061 FROM 0 TO 0.01
i_r4_pp: PP(I(R4))=5.82076609135e-11 FROM 0 TO 0.01
i_r5_max: MAX(I(R5))=-6.47818815196e-05 FROM 0 TO 0.01
i_r5_min: MIN(I(R5))=-6.47818960715e-05 FROM 0 TO 0.01
i_r5_rms: RMS(I(R5))=6.47818960715e-05 FROM 0 TO 0.01
i_r5_avg: AVG(I(R5))=-6.47818960715e-05 FROM 0 TO 0.01
i_r5_pp: PP(I(R5))=1.45519152284e-11 FROM 0 TO 0.01
i_v1_max: MAX(I(V1))=-0.000769007252529 FROM 0 TO 0.01
i_v1_min: MIN(I(V1))=-0.000769007252529 FROM 0 TO 0.01
i_v1_rms: RMS(I(V1))=0.000769007252529 FROM 0 TO 0.01
i_v1_avg: AVG(I(V1))=-0.000769007252529 FROM 0 TO 0.01
i_v1_pp: PP(I(V1))=0 FROM 0 TO 0.01
