LTspice 26.0.1 for Windows
Circuit: C:\ft\ltspice_llm_pipeline_vnext_20260303\pipeline\out_all_labs_rich_v1_train\Lab1_2B_5_0\golden\Lab1_2B_5_0__golden.cir
Start Time: Thu Mar 26 18:04:30 2026
solver = Normal
Maximum thread count: 24
tnom = 27
temp = 27
method = trap
Direct Newton iteration succeeded in finding operating point.
Total elapsed time: 0.020 seconds.

Files loaded:
C:\ft\ltspice_llm_pipeline_vnext_20260303\pipeline\out_all_labs_rich_v1_train\Lab1_2B_5_0\golden\Lab1_2B_5_0__golden.cir

v_n001_max: MAX(V(N001))=9 FROM 0 TO 0.01
v_n001_min: MIN(V(N001))=9 FROM 0 TO 0.01
v_n001_rms: RMS(V(N001))=9 FROM 0 TO 0.01
v_n001_avg: AVG(V(N001))=9 FROM 0 TO 0.01
v_n001_pp: PP(V(N001))=0 FROM 0 TO 0.01
v_n002_max: MAX(V(N002))=5 FROM 0 TO 0.01
v_n002_min: MIN(V(N002))=5 FROM 0 TO 0.01
v_n002_rms: RMS(V(N002))=5 FROM 0 TO 0.01
v_n002_avg: AVG(V(N002))=5 FROM 0 TO 0.01
v_n002_pp: PP(V(N002))=0 FROM 0 TO 0.01
i_r1_max: MAX(I(R1))=0.000500000023749 FROM 0 TO 0.01
i_r1_min: MIN(I(R1))=0.000500000023749 FROM 0 TO 0.01
i_r1_rms: RMS(I(R1))=0.000500000023749 FROM 0 TO 0.01
i_r1_avg: AVG(I(R1))=0.000500000023749 FROM 0 TO 0.01
i_r1_pp: PP(I(R1))=0 FROM 0 TO 0.01
i_r2_max: MAX(I(R2))=-0.000500000023749 FROM 0 TO 0.01
i_r2_min: MIN(I(R2))=-0.000500000023749 FROM 0 TO 0.01
i_r2_rms: RMS(I(R2))=0.000500000023749 FROM 0 TO 0.01
i_r2_avg: AVG(I(R2))=-0.000500000023749 FROM 0 TO 0.01
i_r2_pp: PP(I(R2))=0 FROM 0 TO 0.01
i_v1_max: MAX(I(V1))=-0.000500000023749 FROM 0 TO 0.01
i_v1_min: MIN(I(V1))=-0.000500000023749 FROM 0 TO 0.01
i_v1_rms: RMS(I(V1))=0.000500000023749 FROM 0 TO 0.01
i_v1_avg: AVG(I(V1))=-0.000500000023749 FROM 0 TO 0.01
i_v1_pp: PP(I(V1))=0 FROM 0 TO 0.01
