LTspice 26.0.1 for Windows
Circuit: C:\ft\ltspice_llm_pipeline_vnext_20260303\pipeline\out_all_labs_rich_v1_train\Lab3_1\golden\Lab3_1__golden.cir
Start Time: Thu Mar 26 18:08:42 2026
solver = Normal
Maximum thread count: 24
tnom = 27
temp = 27
method = trap
Direct Newton iteration succeeded in finding operating point.
Total elapsed time: 0.020 seconds.

Files loaded:
C:\ft\ltspice_llm_pipeline_vnext_20260303\pipeline\out_all_labs_rich_v1_train\Lab3_1\golden\Lab3_1__golden.cir

v_n001_max: MAX(V(N001))=1.41889882088 FROM 0 TO 0.01
v_n001_min: MIN(V(N001))=1.41889882088 FROM 0 TO 0.01
v_n001_rms: RMS(V(N001))=1.41889882088 FROM 0 TO 0.01
v_n001_avg: AVG(V(N001))=1.41889882088 FROM 0 TO 0.01
v_n001_pp: PP(V(N001))=0 FROM 0 TO 0.01
v_n002_max: MAX(V(N002))=5 FROM 0 TO 0.01
v_n002_min: MIN(V(N002))=5 FROM 0 TO 0.01
v_n002_rms: RMS(V(N002))=5 FROM 0 TO 0.01
v_n002_avg: AVG(V(N002))=5 FROM 0 TO 0.01
v_n002_pp: PP(V(N002))=0 FROM 0 TO 0.01
v_n003_max: MAX(V(N003))=1.42617154121 FROM 0 TO 0.01
v_n003_min: MIN(V(N003))=1.42617154121 FROM 0 TO 0.01
v_n003_rms: RMS(V(N003))=1.42617154121 FROM 0 TO 0.01
v_n003_avg: AVG(V(N003))=1.42617154121 FROM 0 TO 0.01
v_n003_pp: PP(V(N003))=0 FROM 0 TO 0.01
v_n004_max: MAX(V(N004))=2 FROM 0 TO 0.01
v_n004_min: MIN(V(N004))=2 FROM 0 TO 0.01
v_n004_rms: RMS(V(N004))=2 FROM 0 TO 0.01
v_n004_avg: AVG(V(N004))=2 FROM 0 TO 0.01
v_n004_pp: PP(V(N004))=0 FROM 0 TO 0.01
i_r1_max: MAX(I(R1))=0.000702176708728 FROM 0 TO 0.01
i_r1_min: MIN(I(R1))=0.000702176708728 FROM 0 TO 0.01
i_r1_rms: RMS(I(R1))=0.000702176708728 FROM 0 TO 0.01
i_r1_avg: AVG(I(R1))=0.000702176708728 FROM 0 TO 0.01
i_r1_pp: PP(I(R1))=0 FROM 0 TO 0.01
i_r2_max: MAX(I(R2))=-0.000709449406713 FROM 0 TO 0.01
i_r2_min: MIN(I(R2))=-0.000709449406713 FROM 0 TO 0.01
i_r2_rms: RMS(I(R2))=0.000709449406713 FROM 0 TO 0.01
i_r2_avg: AVG(I(R2))=-0.000709449406713 FROM 0 TO 0.01
i_r2_pp: PP(I(R2))=0 FROM 0 TO 0.01
i_r3_max: MAX(I(R3))=0.00028691420448 FROM 0 TO 0.01
i_r3_min: MIN(I(R3))=0.00028691420448 FROM 0 TO 0.01
i_r3_rms: RMS(I(R3))=0.00028691420448 FROM 0 TO 0.01
i_r3_avg: AVG(I(R3))=0.00028691420448 FROM 0 TO 0.01
i_r3_pp: PP(I(R3))=0 FROM 0 TO 0.01
i_r4_max: MAX(I(R4))=-7.272727089e-06 FROM 0 TO 0.01
i_r4_min: MIN(I(R4))=-7.272727089e-06 FROM 0 TO 0.01
i_r4_rms: RMS(I(R4))=7.272727089e-06 FROM 0 TO 0.01
i_r4_avg: AVG(I(R4))=-7.272727089e-06 FROM 0 TO 0.01
i_r4_pp: PP(I(R4))=0 FROM 0 TO 0.01
i_r5_max: MAX(I(R5))=-0.000279641477391 FROM 0 TO 0.01
i_r5_min: MIN(I(R5))=-0.000279641477391 FROM 0 TO 0.01
i_r5_rms: RMS(I(R5))=0.000279641477391 FROM 0 TO 0.01
i_r5_avg: AVG(I(R5))=-0.000279641477391 FROM 0 TO 0.01
i_r5_pp: PP(I(R5))=0 FROM 0 TO 0.01
i_v1_max: MAX(I(V1))=-0.000702176708728 FROM 0 TO 0.01
i_v1_min: MIN(I(V1))=-0.000702176708728 FROM 0 TO 0.01
i_v1_rms: RMS(I(V1))=0.000702176708728 FROM 0 TO 0.01
i_v1_avg: AVG(I(V1))=-0.000702176708728 FROM 0 TO 0.01
i_v1_pp: PP(I(V1))=0 FROM 0 TO 0.01
i_v2_max: MAX(I(V2))=-0.00028691420448 FROM 0 TO 0.01
i_v2_min: MIN(I(V2))=-0.00028691420448 FROM 0 TO 0.01
i_v2_rms: RMS(I(V2))=0.00028691420448 FROM 0 TO 0.01
i_v2_avg: AVG(I(V2))=-0.00028691420448 FROM 0 TO 0.01
i_v2_pp: PP(I(V2))=0 FROM 0 TO 0.01
