LTspice 26.0.1 for Windows
Circuit: C:\ft\ltspice_llm_pipeline_vnext_20260303\pipeline\out_all_labs_rich_v1_train\Lab8_SOD\golden\Lab8_SOD__golden.cir
Start Time: Thu Mar 26 19:18:07 2026
solver = Normal
Maximum thread count: 24
tnom = 27
temp = 27
method = trap
Direct Newton iteration succeeded in finding operating point.
Total elapsed time: 0.031 seconds.

Files loaded:
C:\ft\ltspice_llm_pipeline_vnext_20260303\pipeline\out_all_labs_rich_v1_train\Lab8_SOD\golden\Lab8_SOD__golden.cir
C:\Users\bchar\OneDrive\Documents\LTspice\LM741.lib

v_n001_max: MAX(V(N001))=0.999129533768 FROM 0 TO 0.01
v_n001_min: MIN(V(N001))=-1.00087738037 FROM 0 TO 0.01
v_n001_rms: RMS(V(N001))=0.984799988199 FROM 0 TO 0.01
v_n001_avg: AVG(V(N001))=-0.000673807679573 FROM 0 TO 0.01
v_n001_pp: PP(V(N001))=2.00000691414 FROM 0 TO 0.01
v_n002_max: MAX(V(N002))=0.975458502769 FROM 0 TO 0.01
v_n002_min: MIN(V(N002))=-1.01172530651 FROM 0 TO 0.01
v_n002_rms: RMS(V(N002))=0.776944648228 FROM 0 TO 0.01
v_n002_avg: AVG(V(N002))=-0.0126989802042 FROM 0 TO 0.01
v_n002_pp: PP(V(N002))=1.98718380928 FROM 0 TO 0.01
v_n003_max: MAX(V(N003))=5 FROM 0 TO 0.01
v_n003_min: MIN(V(N003))=5 FROM 0 TO 0.01
v_n003_rms: RMS(V(N003))=5 FROM 0 TO 0.01
v_n003_avg: AVG(V(N003))=5 FROM 0 TO 0.01
v_n003_pp: PP(V(N003))=0 FROM 0 TO 0.01
v_n004_max: MAX(V(N004))=1 FROM 0 TO 0.01
v_n004_min: MIN(V(N004))=-1 FROM 0 TO 0.01
v_n004_rms: RMS(V(N004))=0.999933162099 FROM 0 TO 0.01
v_n004_avg: AVG(V(N004))=0.000200000000191 FROM 0 TO 0.01
v_n004_pp: PP(V(N004))=2 FROM 0 TO 0.01
v_n005_max: MAX(V(N005))=0.972988247871 FROM 0 TO 0.01
v_n005_min: MIN(V(N005))=-1.01245713234 FROM 0 TO 0.01
v_n005_rms: RMS(V(N005))=0.776940685291 FROM 0 TO 0.01
v_n005_avg: AVG(V(N005))=-0.0136984224819 FROM 0 TO 0.01
v_n005_pp: PP(V(N005))=1.98544538021 FROM 0 TO 0.01
v_n006_max: MAX(V(N006))=-5 FROM 0 TO 0.01
v_n006_min: MIN(V(N006))=-5 FROM 0 TO 0.01
v_n006_rms: RMS(V(N006))=5 FROM 0 TO 0.01
v_n006_avg: AVG(V(N006))=-5 FROM 0 TO 0.01
v_n006_pp: PP(V(N006))=0 FROM 0 TO 0.01
i_c1_max: MAX(I(C1))=8.09873836261e-06 FROM 0 TO 0.01
i_c1_min: MIN(I(C1))=-8.04001319921e-06 FROM 0 TO 0.01
i_c1_rms: RMS(I(C1))=3.0380596263e-06 FROM 0 TO 0.01
i_c1_avg: AVG(I(C1))=7.25378737941e-09 FROM 0 TO 0.01
i_c1_pp: PP(I(C1))=1.61387515618e-05 FROM 0 TO 0.01
i_c2_max: MAX(I(C2))=0.000131163353217 FROM 0 TO 0.01
i_c2_min: MIN(I(C2))=-0.000131289009005 FROM 0 TO 0.01
i_c2_rms: RMS(I(C2))=1.10822026726e-05 FROM 0 TO 0.01
i_c2_avg: AVG(I(C2))=7.2550564522e-09 FROM 0 TO 0.01
i_c2_pp: PP(I(C2))=0.000262452362222 FROM 0 TO 0.01
i_r1_max: MAX(I(R1))=0.00013112812303 FROM 0 TO 0.01
i_r1_min: MIN(I(R1))=-0.000131428387249 FROM 0 TO 0.01
i_r1_rms: RMS(I(R1))=1.14904273673e-05 FROM 0 TO 0.01
i_r1_avg: AVG(I(R1))=-5.78680483465e-08 FROM 0 TO 0.01
i_r1_pp: PP(I(R1))=0.000262556510279 FROM 0 TO 0.01
i_r2_max: MAX(I(R2))=7.98221844889e-06 FROM 0 TO 0.01
i_r2_min: MIN(I(R2))=-8.15776274976e-06 FROM 0 TO 0.01
i_r2_rms: RMS(I(R2))=3.03907500949e-06 FROM 0 TO 0.01
i_r2_avg: AVG(I(R2))=-6.51230781595e-08 FROM 0 TO 0.01
i_r2_pp: PP(I(R2))=1.61399811986e-05 FROM 0 TO 0.01
i_v1_max: MAX(I(V1))=-0.00140853773337 FROM 0 TO 0.01
i_v1_min: MIN(I(V1))=-0.00153976946604 FROM 0 TO 0.01
i_v1_rms: RMS(I(V1))=0.00145130007794 FROM 0 TO 0.01
i_v1_avg: AVG(I(V1))=-0.0014512887825 FROM 0 TO 0.01
i_v1_pp: PP(I(V1))=0.000131231732666 FROM 0 TO 0.01
i_v2_max: MAX(I(V2))=0.00153987342492 FROM 0 TO 0.01
i_v2_min: MIN(I(V2))=0.0014086846495 FROM 0 TO 0.01
i_v2_rms: RMS(I(V2))=0.0014513506444 FROM 0 TO 0.01
i_v2_avg: AVG(I(V2))=0.00145133939786 FROM 0 TO 0.01
i_v2_pp: PP(I(V2))=0.000131188775413 FROM 0 TO 0.01
i_v3_max: MAX(I(V3))=0.00013112812303 FROM 0 TO 0.01
i_v3_min: MIN(I(V3))=-0.000131428401801 FROM 0 TO 0.01
i_v3_rms: RMS(I(V3))=1.14904275159e-05 FROM 0 TO 0.01
i_v3_avg: AVG(I(V3))=-5.7868032417e-08 FROM 0 TO 0.01
i_v3_pp: PP(I(V3))=0.000262556524831 FROM 0 TO 0.01
