LTspice 26.0.1 for Windows
Circuit: C:\ft\ltspice_llm_pipeline_vnext_20260303\pipeline\out_all_labs_rich_v1_train\Lab6_1\golden\Lab6_1__golden.cir
Start Time: Thu Mar 26 19:02:00 2026
solver = Normal
Maximum thread count: 24
tnom = 27
temp = 27
method = trap
Direct Newton iteration succeeded in finding operating point.
Changing Tseed to 1e-09
Changing Tseed to 1e-11
Changing Tseed to 1e-08
Total elapsed time: 0.065 seconds.

Files loaded:
C:\ft\ltspice_llm_pipeline_vnext_20260303\pipeline\out_all_labs_rich_v1_train\Lab6_1\golden\Lab6_1__golden.cir
C:\Users\bchar\AppData\Local\LTspice\lib\cmp\standard.dio
C:\Users\bchar\OneDrive\Documents\LTspice\LM741.lib

v__vcc_max: MAX(V(-VCC))=-5 FROM 0 TO 0.01
v__vcc_min: MIN(V(-VCC))=-5 FROM 0 TO 0.01
v__vcc_rms: RMS(V(-VCC))=5 FROM 0 TO 0.01
v__vcc_avg: AVG(V(-VCC))=-5 FROM 0 TO 0.01
v__vcc_pp: PP(V(-VCC))=0 FROM 0 TO 0.01
v_n001_max: MAX(V(N001))=0.10000000149 FROM 0 TO 0.01
v_n001_min: MIN(V(N001))=-1.9103500843 FROM 0 TO 0.01
v_n001_rms: RMS(V(N001))=1.90907941708 FROM 0 TO 0.01
v_n001_avg: AVG(V(N001))=-1.90863458751 FROM 0 TO 0.01
v_n001_pp: PP(V(N001))=2.01035008579 FROM 0 TO 0.01
v_n002_max: MAX(V(N002))=0.111189864576 FROM 0 TO 0.01
v_n002_min: MIN(V(N002))=-3.84131765366 FROM 0 TO 0.01
v_n002_rms: RMS(V(N002))=3.8385420946 FROM 0 TO 0.01
v_n002_avg: AVG(V(N002))=-3.83764830522 FROM 0 TO 0.01
v_n002_pp: PP(V(N002))=3.95250751823 FROM 0 TO 0.01
v_n003_max: MAX(V(N003))=0.10100261867 FROM 0 TO 0.01
v_n003_min: MIN(V(N003))=0.0576773956418 FROM 0 TO 0.01
v_n003_rms: RMS(V(N003))=0.0802923467665 FROM 0 TO 0.01
v_n003_avg: AVG(V(N003))=0.0793109855744 FROM 0 TO 0.01
v_n003_pp: PP(V(N003))=0.0433252230287 FROM 0 TO 0.01
v_n004_max: MAX(V(N004))=0.111189857125 FROM 0 TO 0.01
v_n004_min: MIN(V(N004))=-0.684849381447 FROM 0 TO 0.01
v_n004_rms: RMS(V(N004))=0.684747970117 FROM 0 TO 0.01
v_n004_avg: AVG(V(N004))=-0.684702378441 FROM 0 TO 0.01
v_n004_pp: PP(V(N004))=0.796039238572 FROM 0 TO 0.01
v_vcc_max: MAX(V(VCC))=5 FROM 0 TO 0.01
v_vcc_min: MIN(V(VCC))=5 FROM 0 TO 0.01
v_vcc_rms: RMS(V(VCC))=5 FROM 0 TO 0.01
v_vcc_avg: AVG(V(VCC))=5 FROM 0 TO 0.01
v_vcc_pp: PP(V(VCC))=0 FROM 0 TO 0.01
i_c1_max: MAX(I(C1))=1.01002619862e-18 FROM 0 TO 0.01
i_c1_min: MIN(I(C1))=-4.36241680291e-05 FROM 0 TO 0.01
i_c1_rms: RMS(I(C1))=4.33348576805e-05 FROM 0 TO 0.01
i_c1_avg: AVG(I(C1))=-4.33251982882e-05 FROM 0 TO 0.01
i_c1_pp: PP(I(C1))=4.36241680291e-05 FROM 0 TO 0.01
i_d1_max: MAX(I(D1))=8.37349449761e-13 FROM 0 TO 0.01
i_d1_min: MIN(I(D1))=-6.94849397204e-13 FROM 0 TO 0.01
i_d1_rms: RMS(I(D1))=6.94752160236e-13 FROM 0 TO 0.01
i_d1_avg: AVG(I(D1))=-6.94691126194e-13 FROM 0 TO 0.01
i_d1_pp: PP(I(D1))=1.53219884697e-12 FROM 0 TO 0.01
i_d2_max: MAX(I(D2))=0.00315646920353 FROM 0 TO 0.01
i_d2_min: MIN(I(D2))=-1.21054018589e-13 FROM 0 TO 0.01
i_d2_rms: RMS(I(D2))=0.00315389300691 FROM 0 TO 0.01
i_d2_avg: AVG(I(D2))=0.00315294632932 FROM 0 TO 0.01
i_d2_pp: PP(I(D2))=0.00315646920365 FROM 0 TO 0.01
i_r_max: MAX(I(R))=1.01872409175e-07 FROM 0 TO 0.01
i_r_min: MIN(I(R))=-3.94228336518e-05 FROM 0 TO 0.01
i_r_rms: RMS(I(R))=3.91784056735e-05 FROM 0 TO 0.01
i_r_avg: AVG(I(R))=-3.91695928933e-05 FROM 0 TO 0.01
i_r_pp: PP(I(R))=3.95247060609e-05 FROM 0 TO 0.01
i_r1_max: MAX(I(R1))=1.06778279587e-05 FROM 0 TO 0.01
i_r1_min: MIN(I(R1))=-0.000378621101845 FROM 0 TO 0.01
i_r1_rms: RMS(I(R1))=0.000378326015073 FROM 0 TO 0.01
i_r1_avg: AVG(I(R1))=-0.00037823798324 FROM 0 TO 0.01
i_r1_pp: PP(I(R1))=0.000389298929804 FROM 0 TO 0.01
i_r2_max: MAX(I(R2))=1.96078435692e-05 FROM 0 TO 0.01
i_r2_min: MIN(I(R2))=-0.000374578463379 FROM 0 TO 0.01
i_r2_rms: RMS(I(R2))=0.000374329297906 FROM 0 TO 0.01
i_r2_avg: AVG(I(R2))=-0.000374242076421 FROM 0 TO 0.01
i_r2_pp: PP(I(R2))=0.000394186306949 FROM 0 TO 0.01
i_r3_max: MAX(I(R3))=0.00315646827221 FROM 0 TO 0.01
i_r3_min: MIN(I(R3))=-9.58403495455e-13 FROM 0 TO 0.01
i_r3_rms: RMS(I(R3))=0.00315389288276 FROM 0 TO 0.01
i_r3_avg: AVG(I(R3))=0.00315294592561 FROM 0 TO 0.01
i_r3_pp: PP(I(R3))=0.00315646827317 FROM 0 TO 0.01
i_v1_max: MAX(I(V1))=-0.00126249447931 FROM 0 TO 0.01
i_v1_min: MIN(I(V1))=-0.00145661563147 FROM 0 TO 0.01
i_v1_rms: RMS(I(V1))=0.00126671258156 FROM 0 TO 0.01
i_v1_avg: AVG(I(V1))=-0.00126670474512 FROM 0 TO 0.01
i_v1_pp: PP(I(V1))=0.000194121152163 FROM 0 TO 0.01
i_v2_max: MAX(I(V2))=0.00486198021099 FROM 0 TO 0.01
i_v2_min: MIN(I(V2))=0.00144601380453 FROM 0 TO 0.01
i_v2_rms: RMS(I(V2))=0.00483791139158 FROM 0 TO 0.01
i_v2_avg: AVG(I(V2))=0.00483721544363 FROM 0 TO 0.01
i_v2_pp: PP(I(V2))=0.00341596640646 FROM 0 TO 0.01
