LTspice 26.0.1 for Windows
Circuit: C:\ft\ltspice_llm_pipeline_vnext_20260303\pipeline\out_all_labs_rich_v1_train\Lab7_1\golden\Lab7_1__golden.cir
Start Time: Thu Mar 26 19:13:26 2026
solver = Normal
Maximum thread count: 24
tnom = 27
temp = 27
method = trap
Direct Newton iteration failed to find operating point.
Starting Gmin stepping
Gmin stepping succeeded in finding the operating point.

Changing Tseed to 1e-09
Changing Tseed to 1e-11
Changing Tseed to 1e-08
Changing Tseed to 1e-12
Changing Tseed to 1e-07
Changing Tseed to 1e-13
Changing Tseed to 1e-06
Changing Tseed to 1e-14
Changing Tseed to 1e-05
Total elapsed time: 0.049 seconds.

Files loaded:
C:\ft\ltspice_llm_pipeline_vnext_20260303\pipeline\out_all_labs_rich_v1_train\Lab7_1\golden\Lab7_1__golden.cir
C:\Users\bchar\OneDrive\Documents\LTspice\LM741.lib

v__vcc_max: MAX(V(-VCC))=-5 FROM 0 TO 0.01
v__vcc_min: MIN(V(-VCC))=-5 FROM 0 TO 0.01
v__vcc_rms: RMS(V(-VCC))=5 FROM 0 TO 0.01
v__vcc_avg: AVG(V(-VCC))=-5 FROM 0 TO 0.01
v__vcc_pp: PP(V(-VCC))=0 FROM 0 TO 0.01
v_n001_max: MAX(V(N001))=0.00814620964229 FROM 0 TO 0.01
v_n001_min: MIN(V(N001))=0.00100511265919 FROM 0 TO 0.01
v_n001_rms: RMS(V(N001))=0.00782696911746 FROM 0 TO 0.01
v_n001_avg: AVG(V(N001))=0.00766585059573 FROM 0 TO 0.01
v_n001_pp: PP(V(N001))=0.0071410969831 FROM 0 TO 0.01
v_n002_max: MAX(V(N002))=1.97826862335 FROM 0 TO 0.01
v_n002_min: MIN(V(N002))=1 FROM 0 TO 0.01
v_n002_rms: RMS(V(N002))=1.97132606367 FROM 0 TO 0.01
v_n002_avg: AVG(V(N002))=1.97103834184 FROM 0 TO 0.01
v_n002_pp: PP(V(N002))=0.978268623352 FROM 0 TO 0.01
v_n003_max: MAX(V(N003))=3.96721744537 FROM 0 TO 0.01
v_n003_min: MIN(V(N003))=1.01121795177 FROM 0 TO 0.01
v_n003_rms: RMS(V(N003))=3.95289286873 FROM 0 TO 0.01
v_n003_avg: AVG(V(N003))=3.95202906551 FROM 0 TO 0.01
v_n003_pp: PP(V(N003))=2.9559994936 FROM 0 TO 0.01
v_n004_max: MAX(V(N004))=1.0322740078 FROM 0 TO 0.01
v_n004_min: MIN(V(N004))=1.00102651119 FROM 0 TO 0.01
v_n004_rms: RMS(V(N004))=1.016707511 FROM 0 TO 0.01
v_n004_avg: AVG(V(N004))=1.01666742358 FROM 0 TO 0.01
v_n004_pp: PP(V(N004))=0.0312474966049 FROM 0 TO 0.01
v_vcc_max: MAX(V(VCC))=5 FROM 0 TO 0.01
v_vcc_min: MIN(V(VCC))=5 FROM 0 TO 0.01
v_vcc_rms: RMS(V(VCC))=5 FROM 0 TO 0.01
v_vcc_avg: AVG(V(VCC))=5 FROM 0 TO 0.01
v_vcc_pp: PP(V(VCC))=0 FROM 0 TO 0.01
v_vout_max: MAX(V(Vout))=-1.00767946243 FROM 0 TO 0.01
v_vout_min: MIN(V(Vout))=-3.93690705299 FROM 0 TO 0.01
v_vout_rms: RMS(V(Vout))=3.90014319198 FROM 0 TO 0.01
v_vout_avg: AVG(V(Vout))=-3.89125013137 FROM 0 TO 0.01
v_vout_pp: PP(V(Vout))=2.92922759056 FROM 0 TO 0.01
i_c1_max: MAX(I(C1))=2.84918089122e-09 FROM 0 TO 0.01
i_c1_min: MIN(I(C1))=-0.000186078017578 FROM 0 TO 0.01
i_c1_rms: RMS(I(C1))=1.65291473594e-05 FROM 0 TO 0.01
i_c1_avg: AVG(I(C1))=-2.90431460705e-06 FROM 0 TO 0.01
i_c1_pp: PP(I(C1))=0.000186080866758 FROM 0 TO 0.01
i_c2_max: MAX(I(C2))=3.15959878208e-05 FROM 0 TO 0.01
i_c2_min: MIN(I(C2))=1.00102651492e-17 FROM 0 TO 0.01
i_c2_rms: RMS(I(C2))=3.1255090047e-05 FROM 0 TO 0.01
i_c2_avg: AVG(I(C2))=3.12422814042e-05 FROM 0 TO 0.01
i_c2_pp: PP(I(C2))=3.15959878208e-05 FROM 0 TO 0.01
i_r1_max: MAX(I(R1))=-6.73475224175e-05 FROM 0 TO 0.01
i_r1_min: MIN(I(R1))=-0.000264224654529 FROM 0 TO 0.01
i_r1_rms: RMS(I(R1))=0.000263014966109 FROM 0 TO 0.01
i_r1_avg: AVG(I(R1))=-0.000262957547399 FROM 0 TO 0.01
i_r1_pp: PP(I(R1))=0.000196877132112 FROM 0 TO 0.01
i_r2_max: MAX(I(R2))=-6.72456371831e-05 FROM 0 TO 0.01
i_r2_min: MIN(I(R2))=-0.000263003545115 FROM 0 TO 0.01
i_r2_rms: RMS(I(R2))=0.000260523447129 FROM 0 TO 0.01
i_r2_avg: AVG(I(R2))=-0.000259927732134 FROM 0 TO 0.01
i_r2_pp: PP(I(R2))=0.000195757907932 FROM 0 TO 0.01
i_r3_max: MAX(I(R3))=0.000389989989344 FROM 0 TO 0.01
i_r3_min: MIN(I(R3))=2.19959406422e-06 FROM 0 TO 0.01
i_r3_rms: RMS(I(R3))=0.00038855065626 FROM 0 TO 0.01
i_r3_avg: AVG(I(R3))=0.00038842955367 FROM 0 TO 0.01
i_r3_pp: PP(I(R3))=0.00038779039528 FROM 0 TO 0.01
i_r4_max: MAX(I(R4))=0.00038789579412 FROM 0 TO 0.01
i_r4_min: MIN(I(R4))=0.000196078428417 FROM 0 TO 0.01
i_r4_rms: RMS(I(R4))=0.000386534523072 FROM 0 TO 0.01
i_r4_avg: AVG(I(R4))=0.000386478107026 FROM 0 TO 0.01
i_r4_pp: PP(I(R4))=0.000191817365703 FROM 0 TO 0.01
i_r5_max: MAX(I(R5))=2.96616435662e-05 FROM 0 TO 0.01
i_r5_min: MIN(I(R5))=1.01914075401e-07 FROM 0 TO 0.01
i_r5_rms: RMS(I(R5))=2.93652205231e-05 FROM 0 TO 0.01
i_r5_avg: AVG(I(R5))=2.93536164003e-05 FROM 0 TO 0.01
i_r5_pp: PP(I(R5))=2.95597294908e-05 FROM 0 TO 0.01
i_v1_max: MAX(I(V1))=-0.00291706365533 FROM 0 TO 0.01
i_v1_min: MIN(I(V1))=-0.00345641793683 FROM 0 TO 0.01
i_v1_rms: RMS(I(V1))=0.0034397359951 FROM 0 TO 0.01
i_v1_avg: AVG(I(V1))=-0.00343970596646 FROM 0 TO 0.01
i_v1_pp: PP(I(V1))=0.0005393542815 FROM 0 TO 0.01
i_v2_max: MAX(I(V2))=0.00303697469644 FROM 0 TO 0.01
i_v2_min: MIN(I(V2))=0.00291497958824 FROM 0 TO 0.01
i_v2_rms: RMS(I(V2))=0.00302212111228 FROM 0 TO 0.01
i_v2_avg: AVG(I(V2))=0.0030221169579 FROM 0 TO 0.01
i_v2_pp: PP(I(V2))=0.000121995108202 FROM 0 TO 0.01
