LTspice 26.0.1 for Windows
Circuit: C:\ft\ltspice_llm_pipeline_vnext_20260303\pipeline\out_all_labs_rich_v1_train\Lab8_SUD\golden\Lab8_SUD__golden.cir
Start Time: Thu Mar 26 19:19:51 2026
solver = Normal
Maximum thread count: 24
tnom = 27
temp = 27
method = trap
Direct Newton iteration succeeded in finding operating point.
Total elapsed time: 0.028 seconds.

Files loaded:
C:\ft\ltspice_llm_pipeline_vnext_20260303\pipeline\out_all_labs_rich_v1_train\Lab8_SUD\golden\Lab8_SUD__golden.cir
C:\Users\bchar\OneDrive\Documents\LTspice\LM741.lib

v_n001_max: MAX(V(N001))=0.996832072735 FROM 0 TO 0.01
v_n001_min: MIN(V(N001))=-1.00087451935 FROM 0 TO 0.01
v_n001_rms: RMS(V(N001))=0.871394343487 FROM 0 TO 0.01
v_n001_avg: AVG(V(N001))=-0.000862666533635 FROM 0 TO 0.01
v_n001_pp: PP(V(N001))=1.99770659208 FROM 0 TO 0.01
v_n002_max: MAX(V(N002))=0.995871424675 FROM 0 TO 0.01
v_n002_min: MIN(V(N002))=-1.00100183487 FROM 0 TO 0.01
v_n002_rms: RMS(V(N002))=0.818198251215 FROM 0 TO 0.01
v_n002_avg: AVG(V(N002))=-0.000967911506584 FROM 0 TO 0.01
v_n002_pp: PP(V(N002))=1.99687325954 FROM 0 TO 0.01
v_n003_max: MAX(V(N003))=5 FROM 0 TO 0.01
v_n003_min: MIN(V(N003))=5 FROM 0 TO 0.01
v_n003_rms: RMS(V(N003))=5 FROM 0 TO 0.01
v_n003_avg: AVG(V(N003))=5 FROM 0 TO 0.01
v_n003_pp: PP(V(N003))=0 FROM 0 TO 0.01
v_n004_max: MAX(V(N004))=1 FROM 0 TO 0.01
v_n004_min: MIN(V(N004))=-1 FROM 0 TO 0.01
v_n004_rms: RMS(V(N004))=0.9999331621 FROM 0 TO 0.01
v_n004_avg: AVG(V(N004))=0.000199999999415 FROM 0 TO 0.01
v_n004_pp: PP(V(N004))=2 FROM 0 TO 0.01
v_n005_max: MAX(V(N005))=0.993147969246 FROM 0 TO 0.01
v_n005_min: MIN(V(N005))=-1.00174891949 FROM 0 TO 0.01
v_n005_rms: RMS(V(N005))=0.818178175489 FROM 0 TO 0.01
v_n005_avg: AVG(V(N005))=-0.00196779998295 FROM 0 TO 0.01
v_n005_pp: PP(V(N005))=1.99489688873 FROM 0 TO 0.01
v_n006_max: MAX(V(N006))=-5 FROM 0 TO 0.01
v_n006_min: MIN(V(N006))=-5 FROM 0 TO 0.01
v_n006_rms: RMS(V(N006))=5 FROM 0 TO 0.01
v_n006_avg: AVG(V(N006))=-5 FROM 0 TO 0.01
v_n006_pp: PP(V(N006))=0 FROM 0 TO 0.01
i_c1_max: MAX(I(C1))=5.63619905734e-05 FROM 0 TO 0.01
i_c1_min: MIN(I(C1))=-5.62232162338e-05 FROM 0 TO 0.01
i_c1_rms: RMS(I(C1))=1.99088834679e-05 FROM 0 TO 0.01
i_c1_avg: AVG(I(C1))=1.53193315863e-08 FROM 0 TO 0.01
i_c1_pp: PP(I(C1))=0.000112585206807 FROM 0 TO 0.01
i_c2_max: MAX(I(C2))=0.000131135573611 FROM 0 TO 0.01
i_c2_min: MIN(I(C2))=-0.000131229389808 FROM 0 TO 0.01
i_c2_rms: RMS(I(C2))=1.14935059235e-05 FROM 0 TO 0.01
i_c2_avg: AVG(I(C2))=2.81231322318e-09 FROM 0 TO 0.01
i_c2_pp: PP(I(C2))=0.000262364963419 FROM 0 TO 0.01
i_r1_max: MAX(I(R1))=0.000131565029733 FROM 0 TO 0.01
i_r1_min: MIN(I(R1))=-0.000131897279061 FROM 0 TO 0.01
i_r1_rms: RMS(I(R1))=2.29856273122e-05 FROM 0 TO 0.01
i_r1_avg: AVG(I(R1))=-7.03752887615e-08 FROM 0 TO 0.01
i_r1_pp: PP(I(R1))=0.000263462308794 FROM 0 TO 0.01
i_r2_max: MAX(I(R2))=5.61671986361e-05 FROM 0 TO 0.01
i_r2_min: MIN(I(R2))=-5.64207293792e-05 FROM 0 TO 0.01
i_r2_rms: RMS(I(R2))=1.99093683642e-05 FROM 0 TO 0.01
i_r2_avg: AVG(I(R2))=-7.31875441651e-08 FROM 0 TO 0.01
i_r2_pp: PP(I(R2))=0.000112587928015 FROM 0 TO 0.01
i_v1_max: MAX(I(V1))=-0.00140854774509 FROM 0 TO 0.01
i_v1_min: MIN(I(V1))=-0.00153976795264 FROM 0 TO 0.01
i_v1_rms: RMS(I(V1))=0.00145131201443 FROM 0 TO 0.01
i_v1_avg: AVG(I(V1))=-0.00145129987411 FROM 0 TO 0.01
i_v1_pp: PP(I(V1))=0.00013122020755 FROM 0 TO 0.01
i_v2_max: MAX(I(V2))=0.00153982976917 FROM 0 TO 0.01
i_v2_min: MIN(I(V2))=0.00140868499875 FROM 0 TO 0.01
i_v2_rms: RMS(I(V2))=0.00145136702331 FROM 0 TO 0.01
i_v2_avg: AVG(I(V2))=0.0014513549281 FROM 0 TO 0.01
i_v2_pp: PP(I(V2))=0.000131144770421 FROM 0 TO 0.01
i_v3_max: MAX(I(V3))=0.00013156553905 FROM 0 TO 0.01
i_v3_min: MIN(I(V3))=-0.000131897279061 FROM 0 TO 0.01
i_v3_rms: RMS(I(V3))=2.29856274149e-05 FROM 0 TO 0.01
i_v3_avg: AVG(I(V3))=-7.03752706839e-08 FROM 0 TO 0.01
i_v3_pp: PP(I(V3))=0.000263462818111 FROM 0 TO 0.01
