LTspice 26.0.1 for Windows
Circuit: C:\ft\ltspice_llm_pipeline_vnext_20260303\pipeline\out_all_labs_rich_v1_train\Lab9_1\golden\Lab9_1__golden.cir
Start Time: Thu Mar 26 19:23:17 2026
solver = Normal
Maximum thread count: 24
tnom = 27
temp = 27
method = trap
Direct Newton iteration succeeded in finding operating point.
Total elapsed time: 0.025 seconds.

Files loaded:
C:\ft\ltspice_llm_pipeline_vnext_20260303\pipeline\out_all_labs_rich_v1_train\Lab9_1\golden\Lab9_1__golden.cir
C:\Users\bchar\OneDrive\Documents\LTspice\LM741.lib

v_n001_max: MAX(V(N001))=0.0583306737244 FROM 0 TO 0.01
v_n001_min: MIN(V(N001))=-0.00289340293966 FROM 0 TO 0.01
v_n001_rms: RMS(V(N001))=0.0324756463677 FROM 0 TO 0.01
v_n001_avg: AVG(V(N001))=0.0268909968081 FROM 0 TO 0.01
v_n001_pp: PP(V(N001))=0.0612240766641 FROM 0 TO 0.01
v_n002_max: MAX(V(N002))=0.0587870515883 FROM 0 TO 0.01
v_n002_min: MIN(V(N002))=-0.00224647368304 FROM 0 TO 0.01
v_n002_rms: RMS(V(N002))=0.0328531485656 FROM 0 TO 0.01
v_n002_avg: AVG(V(N002))=0.0273516838075 FROM 0 TO 0.01
v_n002_pp: PP(V(N002))=0.0610335252713 FROM 0 TO 0.01
v_n003_max: MAX(V(N003))=5 FROM 0 TO 0.01
v_n003_min: MIN(V(N003))=5 FROM 0 TO 0.01
v_n003_rms: RMS(V(N003))=5 FROM 0 TO 0.01
v_n003_avg: AVG(V(N003))=5 FROM 0 TO 0.01
v_n003_pp: PP(V(N003))=0 FROM 0 TO 0.01
v_n004_max: MAX(V(N004))=0.0627905204892 FROM 0 TO 0.01
v_n004_min: MIN(V(N004))=0 FROM 0 TO 0.01
v_n004_rms: RMS(V(N004))=0.0362616686201 FROM 0 TO 0.01
v_n004_avg: AVG(V(N004))=0.0314055924659 FROM 0 TO 0.01
v_n004_pp: PP(V(N004))=0.0627905204892 FROM 0 TO 0.01
v_n005_max: MAX(V(N005))=0.0577863939106 FROM 0 TO 0.01
v_n005_min: MIN(V(N005))=-0.00324639794417 FROM 0 TO 0.01
v_n005_rms: RMS(V(N005))=0.0320252742782 FROM 0 TO 0.01
v_n005_avg: AVG(V(N005))=0.0263518399795 FROM 0 TO 0.01
v_n005_pp: PP(V(N005))=0.0610327918548 FROM 0 TO 0.01
v_n006_max: MAX(V(N006))=-5 FROM 0 TO 0.01
v_n006_min: MIN(V(N006))=-5 FROM 0 TO 0.01
v_n006_rms: RMS(V(N006))=5 FROM 0 TO 0.01
v_n006_avg: AVG(V(N006))=-5 FROM 0 TO 0.01
v_n006_pp: PP(V(N006))=0 FROM 0 TO 0.01
i_c1_max: MAX(I(C1))=9.3084207009e-09 FROM 0 TO 0.01
i_c1_min: MIN(I(C1))=-3.09812939747e-08 FROM 0 TO 0.01
i_c1_rms: RMS(I(C1))=8.12939324619e-09 FROM 0 TO 0.01
i_c1_avg: AVG(I(C1))=-1.9055411483e-09 FROM 0 TO 0.01
i_c1_pp: PP(I(C1))=4.02897146756e-08 FROM 0 TO 0.01
i_c2_max: MAX(I(C2))=4.08302582855e-08 FROM 0 TO 0.01
i_c2_min: MIN(I(C2))=-1.62319901054e-23 FROM 0 TO 0.01
i_c2_rms: RMS(I(C2))=3.11648434964e-08 FROM 0 TO 0.01
i_c2_avg: AVG(I(C2))=3.05163955041e-08 FROM 0 TO 0.01
i_c2_pp: PP(I(C2))=4.08302582855e-08 FROM 0 TO 0.01
i_r1_max: MAX(I(R1))=-5.78680570129e-08 FROM 0 TO 0.01
i_r1_min: MIN(I(R1))=-1.12742661429e-07 FROM 0 TO 0.01
i_r1_rms: RMS(I(R1))=9.05428670611e-08 FROM 0 TO 0.01
i_r1_avg: AVG(I(R1))=-9.02919124392e-08 FROM 0 TO 0.01
i_r1_pp: PP(I(R1))=5.4874604416e-08 FROM 0 TO 0.01
i_r2_max: MAX(I(R2))=-5.78680570129e-08 FROM 0 TO 0.01
i_r2_min: MIN(I(R2))=-9.87023867083e-08 FROM 0 TO 0.01
i_r2_rms: RMS(I(R2))=8.8612378976e-08 FROM 0 TO 0.01
i_r2_avg: AVG(I(R2))=-8.83863712304e-08 FROM 0 TO 0.01
i_r2_pp: PP(I(R2))=4.08343296954e-08 FROM 0 TO 0.01
i_v1_max: MAX(I(V1))=-0.00145109358709 FROM 0 TO 0.01
i_v1_min: MIN(I(V1))=-0.00145111372694 FROM 0 TO 0.01
i_v1_rms: RMS(I(V1))=0.00145110813507 FROM 0 TO 0.01
i_v1_avg: AVG(I(V1))=-0.00145110813506 FROM 0 TO 0.01
i_v1_pp: PP(I(V1))=2.01398506761e-08 FROM 0 TO 0.01
i_v2_max: MAX(I(V2))=0.00145118241198 FROM 0 TO 0.01
i_v2_min: MIN(I(V2))=0.00145116227213 FROM 0 TO 0.01
i_v2_rms: RMS(I(V2))=0.00145116791135 FROM 0 TO 0.01
i_v2_avg: AVG(I(V2))=0.00145116791135 FROM 0 TO 0.01
i_v2_pp: PP(I(V2))=2.01398506761e-08 FROM 0 TO 0.01
i_v3_max: MAX(I(V3))=-5.78680570129e-08 FROM 0 TO 0.01
i_v3_min: MIN(I(V3))=-1.12742661429e-07 FROM 0 TO 0.01
i_v3_rms: RMS(I(V3))=9.05428670611e-08 FROM 0 TO 0.01
i_v3_avg: AVG(I(V3))=-9.02919124392e-08 FROM 0 TO 0.01
i_v3_pp: PP(I(V3))=5.4874604416e-08 FROM 0 TO 0.01
