LTspice 26.0.1 for Windows
Circuit: C:\ft\ltspice_llm_pipeline_vnext_20260303\pipeline\out_all_labs_rich_v1_train\Lab1_1_10000\golden\Lab1_1_10000__golden.cir
Start Time: Thu Mar 26 18:01:42 2026
solver = Normal
Maximum thread count: 24
tnom = 27
temp = 27
method = trap
Direct Newton iteration succeeded in finding operating point.
Total elapsed time: 0.017 seconds.

Files loaded:
C:\ft\ltspice_llm_pipeline_vnext_20260303\pipeline\out_all_labs_rich_v1_train\Lab1_1_10000\golden\Lab1_1_10000__golden.cir

v_n001_max: MAX(V(N001))=9 FROM 0 TO 0.01
v_n001_min: MIN(V(N001))=9 FROM 0 TO 0.01
v_n001_rms: RMS(V(N001))=9 FROM 0 TO 0.01
v_n001_avg: AVG(V(N001))=9 FROM 0 TO 0.01
v_n001_pp: PP(V(N001))=0 FROM 0 TO 0.01
i_r1_max: MAX(I(R1))=-0.00089999998454 FROM 0 TO 0.01
i_r1_min: MIN(I(R1))=-0.00089999998454 FROM 0 TO 0.01
i_r1_rms: RMS(I(R1))=0.00089999998454 FROM 0 TO 0.01
i_r1_avg: AVG(I(R1))=-0.00089999998454 FROM 0 TO 0.01
i_r1_pp: PP(I(R1))=0 FROM 0 TO 0.01
i_v1_max: MAX(I(V1))=-0.00089999998454 FROM 0 TO 0.01
i_v1_min: MIN(I(V1))=-0.00089999998454 FROM 0 TO 0.01
i_v1_rms: RMS(I(V1))=0.00089999998454 FROM 0 TO 0.01
i_v1_avg: AVG(I(V1))=-0.00089999998454 FROM 0 TO 0.01
i_v1_pp: PP(I(V1))=0 FROM 0 TO 0.01
