LTspice 26.0.1 for Windows
Circuit: C:\ft\ltspice_llm_pipeline_vnext_20260303\pipeline\out_all_labs_rich_v1_train\Lab8_OD\golden\Lab8_OD__golden.cir
Start Time: Thu Mar 26 19:16:21 2026
solver = Normal
Maximum thread count: 24
tnom = 27
temp = 27
method = trap
Direct Newton iteration succeeded in finding operating point.
Total elapsed time: 0.030 seconds.

Files loaded:
C:\ft\ltspice_llm_pipeline_vnext_20260303\pipeline\out_all_labs_rich_v1_train\Lab8_OD\golden\Lab8_OD__golden.cir
C:\Users\bchar\OneDrive\Documents\LTspice\LM741.lib

v_n001_max: MAX(V(N001))=0.999705195427 FROM 0 TO 0.01
v_n001_min: MIN(V(N001))=-1.00029599667 FROM 0 TO 0.01
v_n001_rms: RMS(V(N001))=0.994912370677 FROM 0 TO 0.01
v_n001_avg: AVG(V(N001))=-9.51349398839e-05 FROM 0 TO 0.01
v_n001_pp: PP(V(N001))=2.00000119209 FROM 0 TO 0.01
v_n002_max: MAX(V(N002))=0.858113706112 FROM 0 TO 0.01
v_n002_min: MIN(V(N002))=-1.02070689201 FROM 0 TO 0.01
v_n002_rms: RMS(V(N002))=0.605980634227 FROM 0 TO 0.01
v_n002_avg: AVG(V(N002))=-0.0412522861807 FROM 0 TO 0.01
v_n002_pp: PP(V(N002))=1.87882059813 FROM 0 TO 0.01
v_n003_max: MAX(V(N003))=5 FROM 0 TO 0.01
v_n003_min: MIN(V(N003))=5 FROM 0 TO 0.01
v_n003_rms: RMS(V(N003))=5 FROM 0 TO 0.01
v_n003_avg: AVG(V(N003))=5 FROM 0 TO 0.01
v_n003_pp: PP(V(N003))=0 FROM 0 TO 0.01
v_n004_max: MAX(V(N004))=1 FROM 0 TO 0.01
v_n004_min: MIN(V(N004))=-1 FROM 0 TO 0.01
v_n004_rms: RMS(V(N004))=0.999933162447 FROM 0 TO 0.01
v_n004_avg: AVG(V(N004))=0.000200000000283 FROM 0 TO 0.01
v_n004_pp: PP(V(N004))=2 FROM 0 TO 0.01
v_n005_max: MAX(V(N005))=0.852817118168 FROM 0 TO 0.01
v_n005_min: MIN(V(N005))=-1.02114415169 FROM 0 TO 0.01
v_n005_rms: RMS(V(N005))=0.606030747147 FROM 0 TO 0.01
v_n005_avg: AVG(V(N005))=-0.0422494868175 FROM 0 TO 0.01
v_n005_pp: PP(V(N005))=1.87396126986 FROM 0 TO 0.01
v_n006_max: MAX(V(N006))=-5 FROM 0 TO 0.01
v_n006_min: MIN(V(N006))=-5 FROM 0 TO 0.01
v_n006_rms: RMS(V(N006))=5 FROM 0 TO 0.01
v_n006_avg: AVG(V(N006))=-5 FROM 0 TO 0.01
v_n006_pp: PP(V(N006))=0 FROM 0 TO 0.01
i_c1_max: MAX(I(C1))=5.22819073012e-06 FROM 0 TO 0.01
i_c1_min: MIN(I(C1))=-4.89788453706e-06 FROM 0 TO 0.01
i_c1_rms: RMS(I(C1))=2.26333556322e-06 FROM 0 TO 0.01
i_c1_avg: AVG(I(C1))=5.92193456448e-08 FROM 0 TO 0.01
i_c1_pp: PP(I(C1))=1.01260752672e-05 FROM 0 TO 0.01
i_c2_max: MAX(I(C2))=0.00038217799738 FROM 0 TO 0.01
i_c2_min: MIN(I(C2))=-0.000383423437597 FROM 0 TO 0.01
i_c2_rms: RMS(I(C2))=1.96005410163e-05 FROM 0 TO 0.01
i_c2_avg: AVG(I(C2))=5.92257463623e-08 FROM 0 TO 0.01
i_c2_pp: PP(I(C2))=0.000765601434978 FROM 0 TO 0.01
i_r1_max: MAX(I(R1))=0.000381914171157 FROM 0 TO 0.01
i_r1_min: MIN(I(R1))=-0.000383603299269 FROM 0 TO 0.01
i_r1_rms: RMS(I(R1))=1.97299008671e-05 FROM 0 TO 0.01
i_r1_avg: AVG(I(R1))=-5.78698358658e-08 FROM 0 TO 0.01
i_r1_pp: PP(I(R1))=0.000765517470427 FROM 0 TO 0.01
i_r2_max: MAX(I(R2))=4.84231713926e-06 FROM 0 TO 0.01
i_r2_min: MIN(I(R2))=-5.28711234438e-06 FROM 0 TO 0.01
i_r2_rms: RMS(I(R2))=2.26583700445e-06 FROM 0 TO 0.01
i_r2_avg: AVG(I(R2))=-1.17095417663e-07 FROM 0 TO 0.01
i_r2_pp: PP(I(R2))=1.01294294836e-05 FROM 0 TO 0.01
i_v1_max: MAX(I(V1))=-0.00138635211624 FROM 0 TO 0.01
i_v1_min: MIN(I(V1))=-0.00176862557419 FROM 0 TO 0.01
i_v1_rms: RMS(I(V1))=0.00145160252852 FROM 0 TO 0.01
i_v1_avg: AVG(I(V1))=-0.00145155957621 FROM 0 TO 0.01
i_v1_pp: PP(I(V1))=0.000382273457944 FROM 0 TO 0.01
i_v2_max: MAX(I(V2))=0.00176981394179 FROM 0 TO 0.01
i_v2_min: MIN(I(V2))=0.00138655293267 FROM 0 TO 0.01
i_v2_rms: RMS(I(V2))=0.00145160086651 FROM 0 TO 0.01
i_v2_avg: AVG(I(V2))=0.00145155822828 FROM 0 TO 0.01
i_v2_pp: PP(I(V2))=0.000383261009119 FROM 0 TO 0.01
i_v3_max: MAX(I(V3))=0.000381914171157 FROM 0 TO 0.01
i_v3_min: MIN(I(V3))=-0.000383603299269 FROM 0 TO 0.01
i_v3_rms: RMS(I(V3))=1.97299014474e-05 FROM 0 TO 0.01
i_v3_avg: AVG(I(V3))=-5.78696955025e-08 FROM 0 TO 0.01
i_v3_pp: PP(I(V3))=0.000765517470427 FROM 0 TO 0.01
