LTspice 26.0.1 for Windows
Circuit: C:\ft\ltspice_llm_pipeline_vnext_20260303\pipeline\out_all_labs_rich_v1_train\Lab9_2\golden\Lab9_2__golden.cir
Start Time: Thu Mar 26 19:25:01 2026
solver = Normal
Maximum thread count: 24
tnom = 27
temp = 27
method = trap
Direct Newton iteration succeeded in finding operating point.
Total elapsed time: 0.034 seconds.

Files loaded:
C:\ft\ltspice_llm_pipeline_vnext_20260303\pipeline\out_all_labs_rich_v1_train\Lab9_2\golden\Lab9_2__golden.cir
C:\Users\bchar\OneDrive\Documents\LTspice\LM741.lib

v_n001_max: MAX(V(N001))=0.954165518284 FROM 0 TO 0.01
v_n001_min: MIN(V(N001))=-0.983095824718 FROM 0 TO 0.01
v_n001_rms: RMS(V(N001))=0.677242719868 FROM 0 TO 0.01
v_n001_avg: AVG(V(N001))=-0.0123530048789 FROM 0 TO 0.01
v_n001_pp: PP(V(N001))=1.937261343 FROM 0 TO 0.01
v_n002_max: MAX(V(N002))=0.181256324053 FROM 0 TO 0.01
v_n002_min: MIN(V(N002))=-0.179793953896 FROM 0 TO 0.01
v_n002_rms: RMS(V(N002))=0.127043799119 FROM 0 TO 0.01
v_n002_avg: AVG(V(N002))=0.000198944906279 FROM 0 TO 0.01
v_n002_pp: PP(V(N002))=0.361050277948 FROM 0 TO 0.01
v_n003_max: MAX(V(N003))=5 FROM 0 TO 0.01
v_n003_min: MIN(V(N003))=5 FROM 0 TO 0.01
v_n003_rms: RMS(V(N003))=5 FROM 0 TO 0.01
v_n003_avg: AVG(V(N003))=5 FROM 0 TO 0.01
v_n003_pp: PP(V(N003))=0 FROM 0 TO 0.01
v_n004_max: MAX(V(N004))=0.999835312366 FROM 0 TO 0.01
v_n004_min: MIN(V(N004))=-0.999835312366 FROM 0 TO 0.01
v_n004_rms: RMS(V(N004))=0.706873033545 FROM 0 TO 0.01
v_n004_avg: AVG(V(N004))=2.32607443696e-08 FROM 0 TO 0.01
v_n004_pp: PP(V(N004))=1.99967062473 FROM 0 TO 0.01
v_n005_max: MAX(V(N005))=0.180245041847 FROM 0 TO 0.01
v_n005_min: MIN(V(N005))=-0.180782705545 FROM 0 TO 0.01
v_n005_rms: RMS(V(N005))=0.127042147256 FROM 0 TO 0.01
v_n005_avg: AVG(V(N005))=-0.000798496420017 FROM 0 TO 0.01
v_n005_pp: PP(V(N005))=0.361027747393 FROM 0 TO 0.01
v_n006_max: MAX(V(N006))=-5 FROM 0 TO 0.01
v_n006_min: MIN(V(N006))=-5 FROM 0 TO 0.01
v_n006_rms: RMS(V(N006))=5 FROM 0 TO 0.01
v_n006_avg: AVG(V(N006))=-5 FROM 0 TO 0.01
v_n006_pp: PP(V(N006))=0 FROM 0 TO 0.01
i_c3_max: MAX(I(C3))=2.95786085189e-05 FROM 0 TO 0.01
i_c3_min: MIN(I(C3))=-2.96062044072e-05 FROM 0 TO 0.01
i_c3_rms: RMS(I(C3))=2.08262908504e-05 FROM 0 TO 0.01
i_c3_avg: AVG(I(C3))=7.30236155746e-08 FROM 0 TO 0.01
i_c3_pp: PP(I(C3))=5.91848129261e-05 FROM 0 TO 0.01
i_c4_max: MAX(I(C4))=3.5560959077e-05 FROM 0 TO 0.01
i_c4_min: MIN(I(C4))=-3.49674373865e-05 FROM 0 TO 0.01
i_c4_rms: RMS(I(C4))=2.47158344989e-05 FROM 0 TO 0.01
i_c4_avg: AVG(I(C4))=3.24062611457e-07 FROM 0 TO 0.01
i_c4_pp: PP(I(C4))=7.05283964635e-05 FROM 0 TO 0.01
i_r3_max: MAX(I(R3))=2.96365087706e-05 FROM 0 TO 0.01
i_r3_min: MIN(I(R3))=-2.95483678201e-05 FROM 0 TO 0.01
i_r3_rms: RMS(I(R3))=2.08265815568e-05 FROM 0 TO 0.01
i_r3_avg: AVG(I(R3))=1.30901046174e-07 FROM 0 TO 0.01
i_r3_pp: PP(I(R3))=5.91848765907e-05 FROM 0 TO 0.01
i_r4_max: MAX(I(R4))=1.93291416508e-05 FROM 0 TO 0.01
i_r4_min: MIN(I(R4))=-1.87245877896e-05 FROM 0 TO 0.01
i_r4_rms: RMS(I(R4))=1.33013422785e-05 FROM 0 TO 0.01
i_r4_avg: AVG(I(R4))=2.51038999903e-07 FROM 0 TO 0.01
i_r4_pp: PP(I(R4))=3.80537294404e-05 FROM 0 TO 0.01
i_v1_max: MAX(I(V1))=-0.00144227512646 FROM 0 TO 0.01
i_v1_min: MIN(I(V1))=-0.00146134803072 FROM 0 TO 0.01
i_v1_rms: RMS(I(V1))=0.001451519751 FROM 0 TO 0.01
i_v1_avg: AVG(I(V1))=-0.00145150444088 FROM 0 TO 0.01
i_v1_pp: PP(I(V1))=1.90729042515e-05 FROM 0 TO 0.01
i_v2_max: MAX(I(V2))=0.00146105699241 FROM 0 TO 0.01
i_v2_min: MIN(I(V2))=0.00144207733683 FROM 0 TO 0.01
i_v2_rms: RMS(I(V2))=0.00145132645878 FROM 0 TO 0.01
i_v2_avg: AVG(I(V2))=0.00145131128189 FROM 0 TO 0.01
i_v2_pp: PP(I(V2))=1.89796555787e-05 FROM 0 TO 0.01
i_v3_max: MAX(I(V3))=3.5560959077e-05 FROM 0 TO 0.01
i_v3_min: MIN(I(V3))=-3.49674373865e-05 FROM 0 TO 0.01
i_v3_rms: RMS(I(V3))=2.47158344989e-05 FROM 0 TO 0.01
i_v3_avg: AVG(I(V3))=3.24062611457e-07 FROM 0 TO 0.01
i_v3_pp: PP(I(V3))=7.05283964635e-05 FROM 0 TO 0.01
