LTspice 26.0.1 for Windows
Circuit: C:\ft\ltspice_llm_pipeline_vnext_20260303\pipeline\out_all_labs_rich_v1_train\Lab8_UD\golden\Lab8_UD__golden.cir
Start Time: Thu Mar 26 19:21:37 2026
solver = Normal
Maximum thread count: 24
tnom = 27
temp = 27
method = trap
Direct Newton iteration succeeded in finding operating point.
Total elapsed time: 0.028 seconds.

Files loaded:
C:\ft\ltspice_llm_pipeline_vnext_20260303\pipeline\out_all_labs_rich_v1_train\Lab8_UD\golden\Lab8_UD__golden.cir
C:\Users\bchar\OneDrive\Documents\LTspice\LM741.lib

v_n001_max: MAX(V(N001))=0.812196552753 FROM 0 TO 0.01
v_n001_min: MIN(V(N001))=-1.00087451935 FROM 0 TO 0.01
v_n001_rms: RMS(V(N001))=0.601846354405 FROM 0 TO 0.01
v_n001_avg: AVG(V(N001))=-0.0460252723622 FROM 0 TO 0.01
v_n001_pp: PP(V(N001))=1.8130710721 FROM 0 TO 0.01
v_n002_max: MAX(V(N002))=0.621152639389 FROM 0 TO 0.01
v_n002_min: MIN(V(N002))=-1.0010522604 FROM 0 TO 0.01
v_n002_rms: RMS(V(N002))=0.447001812347 FROM 0 TO 0.01
v_n002_avg: AVG(V(N002))=-0.0924357343547 FROM 0 TO 0.01
v_n002_pp: PP(V(N002))=1.62220489979 FROM 0 TO 0.01
v_n003_max: MAX(V(N003))=5 FROM 0 TO 0.01
v_n003_min: MIN(V(N003))=5 FROM 0 TO 0.01
v_n003_rms: RMS(V(N003))=5 FROM 0 TO 0.01
v_n003_avg: AVG(V(N003))=5 FROM 0 TO 0.01
v_n003_pp: PP(V(N003))=0 FROM 0 TO 0.01
v_n004_max: MAX(V(N004))=1 FROM 0 TO 0.01
v_n004_min: MIN(V(N004))=-1 FROM 0 TO 0.01
v_n004_rms: RMS(V(N004))=0.999933222142 FROM 0 TO 0.01
v_n004_avg: AVG(V(N004))=0.000199999998627 FROM 0 TO 0.01
v_n004_pp: PP(V(N004))=2 FROM 0 TO 0.01
v_n005_max: MAX(V(N005))=0.620066463947 FROM 0 TO 0.01
v_n005_min: MIN(V(N005))=-1.00174891949 FROM 0 TO 0.01
v_n005_rms: RMS(V(N005))=0.447189458879 FROM 0 TO 0.01
v_n005_avg: AVG(V(N005))=-0.0934288720454 FROM 0 TO 0.01
v_n005_pp: PP(V(N005))=1.62181538343 FROM 0 TO 0.01
v_n006_max: MAX(V(N006))=-5 FROM 0 TO 0.01
v_n006_min: MIN(V(N006))=-5 FROM 0 TO 0.01
v_n006_rms: RMS(V(N006))=5 FROM 0 TO 0.01
v_n006_avg: AVG(V(N006))=-5 FROM 0 TO 0.01
v_n006_pp: PP(V(N006))=0 FROM 0 TO 0.01
i_c1_max: MAX(I(C1))=6.34027237538e-05 FROM 0 TO 0.01
i_c1_min: MIN(I(C1))=-5.1411367167e-05 FROM 0 TO 0.01
i_c1_rms: RMS(I(C1))=3.25248429465e-05 FROM 0 TO 0.01
i_c1_avg: AVG(I(C1))=3.08142287682e-06 FROM 0 TO 0.01
i_c1_pp: PP(I(C1))=0.000114814090921 FROM 0 TO 0.01
i_c2_max: MAX(I(C2))=0.000130492539029 FROM 0 TO 0.01
i_c2_min: MIN(I(C2))=-0.000130307395011 FROM 0 TO 0.01
i_c2_rms: RMS(I(C2))=8.12567314983e-06 FROM 0 TO 0.01
i_c2_avg: AVG(I(C2))=7.80349587343e-08 FROM 0 TO 0.01
i_c2_pp: PP(I(C2))=0.00026079993404 FROM 0 TO 0.01
i_r1_max: MAX(I(R1))=0.000118877294881 FROM 0 TO 0.01
i_r1_min: MIN(I(R1))=-0.000131436594529 FROM 0 TO 0.01
i_r1_rms: RMS(I(R1))=3.3538656151e-05 FROM 0 TO 0.01
i_r1_avg: AVG(I(R1))=-3.06127626512e-06 FROM 0 TO 0.01
i_r1_pp: PP(I(R1))=0.00025031388941 FROM 0 TO 0.01
i_r2_max: MAX(I(R2))=5.13534796482e-05 FROM 0 TO 0.01
i_r2_min: MIN(I(R2))=-6.3461222453e-05 FROM 0 TO 0.01
i_r2_rms: RMS(I(R2))=3.25305550685e-05 FROM 0 TO 0.01
i_r2_avg: AVG(I(R2))=-3.13931127012e-06 FROM 0 TO 0.01
i_r2_pp: PP(I(R2))=0.000114814702101 FROM 0 TO 0.01
i_v1_max: MAX(I(V1))=-0.00140872166958 FROM 0 TO 0.01
i_v1_min: MIN(I(V1))=-0.0015392282512 FROM 0 TO 0.01
i_v1_rms: RMS(I(V1))=0.00145124916848 FROM 0 TO 0.01
i_v1_avg: AVG(I(V1))=-0.00145124307713 FROM 0 TO 0.01
i_v1_pp: PP(I(V1))=0.000130506581627 FROM 0 TO 0.01
i_v2_max: MAX(I(V2))=0.00153907574713 FROM 0 TO 0.01
i_v2_min: MIN(I(V2))=0.0014088092139 FROM 0 TO 0.01
i_v2_rms: RMS(I(V2))=0.00145122897421 FROM 0 TO 0.01
i_v2_avg: AVG(I(V2))=0.00145122292919 FROM 0 TO 0.01
i_v2_pp: PP(I(V2))=0.000130266533233 FROM 0 TO 0.01
i_v3_max: MAX(I(V3))=0.000118877294881 FROM 0 TO 0.01
i_v3_min: MIN(I(V3))=-0.000131436609081 FROM 0 TO 0.01
i_v3_rms: RMS(I(V3))=3.35386561528e-05 FROM 0 TO 0.01
i_v3_avg: AVG(I(V3))=-3.06127626548e-06 FROM 0 TO 0.01
i_v3_pp: PP(I(V3))=0.000250313903962 FROM 0 TO 0.01
