LTspice 26.0.1 for Windows
Circuit: C:\ft\ltspice_llm_pipeline_vnext_20260303\pipeline\out_all_labs_rich_v1_train\Lab5_1\golden\Lab5_1__golden.cir
Start Time: Thu Mar 26 18:56:51 2026
solver = Normal
Maximum thread count: 24
tnom = 27
temp = 27
method = trap
Direct Newton iteration failed to find operating point.
Starting Gmin stepping
Gmin stepping succeeded in finding the operating point.

Total elapsed time: 0.080 seconds.

Files loaded:
C:\ft\ltspice_llm_pipeline_vnext_20260303\pipeline\out_all_labs_rich_v1_train\Lab5_1\golden\Lab5_1__golden.cir
C:\Users\bchar\AppData\Local\LTspice\lib\cmp\standard.dio
C:\ft\LTSpice_files\Lab4\Task 3\LM339.lib
C:\Users\bchar\OneDrive\Documents\LTspice\LM741.lib

v_n001_max: MAX(V(N001))=5 FROM 0 TO 0.01
v_n001_min: MIN(V(N001))=5 FROM 0 TO 0.01
v_n001_rms: RMS(V(N001))=5 FROM 0 TO 0.01
v_n001_avg: AVG(V(N001))=5 FROM 0 TO 0.01
v_n001_pp: PP(V(N001))=0 FROM 0 TO 0.01
v_n002_max: MAX(V(N002))=0.92173409462 FROM 0 TO 0.01
v_n002_min: MIN(V(N002))=0.92173409462 FROM 0 TO 0.01
v_n002_rms: RMS(V(N002))=0.92173409462 FROM 0 TO 0.01
v_n002_avg: AVG(V(N002))=0.92173409462 FROM 0 TO 0.01
v_n002_pp: PP(V(N002))=0 FROM 0 TO 0.01
v_n003_max: MAX(V(N003))=3.94177174568 FROM 0 TO 0.01
v_n003_min: MIN(V(N003))=3.94177174568 FROM 0 TO 0.01
v_n003_rms: RMS(V(N003))=3.94177174568 FROM 0 TO 0.01
v_n003_avg: AVG(V(N003))=3.94177174568 FROM 0 TO 0.01
v_n003_pp: PP(V(N003))=0 FROM 0 TO 0.01
v_n004_max: MAX(V(N004))=34.0714569092 FROM 0 TO 0.01
v_n004_min: MIN(V(N004))=34.0714569092 FROM 0 TO 0.01
v_n004_rms: RMS(V(N004))=34.0714569092 FROM 0 TO 0.01
v_n004_avg: AVG(V(N004))=34.0714569092 FROM 0 TO 0.01
v_n004_pp: PP(V(N004))=0 FROM 0 TO 0.01
v_n005_max: MAX(V(N005))=2.50002503395 FROM 0 TO 0.01
v_n005_min: MIN(V(N005))=2.50002503395 FROM 0 TO 0.01
v_n005_rms: RMS(V(N005))=2.50002503395 FROM 0 TO 0.01
v_n005_avg: AVG(V(N005))=2.50002503395 FROM 0 TO 0.01
v_n005_pp: PP(V(N005))=0 FROM 0 TO 0.01
v_n006_max: MAX(V(N006))=3.00945734978 FROM 0 TO 0.01
v_n006_min: MIN(V(N006))=3.00945734978 FROM 0 TO 0.01
v_n006_rms: RMS(V(N006))=3.00945734978 FROM 0 TO 0.01
v_n006_avg: AVG(V(N006))=3.00945734978 FROM 0 TO 0.01
v_n006_pp: PP(V(N006))=0 FROM 0 TO 0.01
v_n007_max: MAX(V(N007))=4.23210954666 FROM 0 TO 0.01
v_n007_min: MIN(V(N007))=4.23210954666 FROM 0 TO 0.01
v_n007_rms: RMS(V(N007))=4.23210954666 FROM 0 TO 0.01
v_n007_avg: AVG(V(N007))=4.23210954666 FROM 0 TO 0.01
v_n007_pp: PP(V(N007))=0 FROM 0 TO 0.01
v_n008_max: MAX(V(N008))=4.21730184555 FROM 0 TO 0.01
v_n008_min: MIN(V(N008))=4.21730184555 FROM 0 TO 0.01
v_n008_rms: RMS(V(N008))=4.21730184555 FROM 0 TO 0.01
v_n008_avg: AVG(V(N008))=4.21730184555 FROM 0 TO 0.01
v_n008_pp: PP(V(N008))=0 FROM 0 TO 0.01
v_n009_max: MAX(V(N009))=-5 FROM 0 TO 0.01
v_n009_min: MIN(V(N009))=-5 FROM 0 TO 0.01
v_n009_rms: RMS(V(N009))=5 FROM 0 TO 0.01
v_n009_avg: AVG(V(N009))=-5 FROM 0 TO 0.01
v_n009_pp: PP(V(N009))=0 FROM 0 TO 0.01
v_p001_max: MAX(V(P001))=4.47138500214 FROM 0 TO 0.01
v_p001_min: MIN(V(P001))=4.47138500214 FROM 0 TO 0.01
v_p001_rms: RMS(V(P001))=4.47138500214 FROM 0 TO 0.01
v_p001_avg: AVG(V(P001))=4.47138500214 FROM 0 TO 0.01
v_p001_pp: PP(V(P001))=0 FROM 0 TO 0.01
v_p002_max: MAX(V(P002))=0.552258789539 FROM 0 TO 0.01
v_p002_min: MIN(V(P002))=0.552258789539 FROM 0 TO 0.01
v_p002_rms: RMS(V(P002))=0.552258789539 FROM 0 TO 0.01
v_p002_avg: AVG(V(P002))=0.552258789539 FROM 0 TO 0.01
v_p002_pp: PP(V(P002))=0 FROM 0 TO 0.01
i_d2_max: MAX(I(D2))=0.000292385491775 FROM 0 TO 0.01
i_d2_min: MIN(I(D2))=0.000292385491775 FROM 0 TO 0.01
i_d2_rms: RMS(I(D2))=0.000292385491775 FROM 0 TO 0.01
i_d2_avg: AVG(I(D2))=0.000292385491775 FROM 0 TO 0.01
i_d2_pp: PP(I(D2))=0 FROM 0 TO 0.01
i_d3_max: MAX(I(D3))=0.000491439714096 FROM 0 TO 0.01
i_d3_min: MIN(I(D3))=0.000491439714096 FROM 0 TO 0.01
i_d3_rms: RMS(I(D3))=0.000491439714097 FROM 0 TO 0.01
i_d3_avg: AVG(I(D3))=0.000491439714096 FROM 0 TO 0.01
i_d3_pp: PP(I(D3))=0 FROM 0 TO 0.01
i_i1_max: MAX(I(I1))=0.054999999702 FROM 0 TO 0.01
i_i1_min: MIN(I(I1))=0.054999999702 FROM 0 TO 0.01
i_i1_rms: RMS(I(I1))=0.054999999702 FROM 0 TO 0.01
i_i1_avg: AVG(I(I1))=0.054999999702 FROM 0 TO 0.01
i_i1_pp: PP(I(I1))=0 FROM 0 TO 0.01
i_r1_max: MAX(I(R1))=-0.000298393482808 FROM 0 TO 0.01
i_r1_min: MIN(I(R1))=-0.000298393482808 FROM 0 TO 0.01
i_r1_rms: RMS(I(R1))=0.000298393482808 FROM 0 TO 0.01
i_r1_avg: AVG(I(R1))=-0.000298393482808 FROM 0 TO 0.01
i_r1_pp: PP(I(R1))=0 FROM 0 TO 0.01
i_r2_max: MAX(I(R2))=-6.73087970426e-06 FROM 0 TO 0.01
i_r2_min: MIN(I(R2))=-6.73087970426e-06 FROM 0 TO 0.01
i_r2_rms: RMS(I(R2))=6.73087970426e-06 FROM 0 TO 0.01
i_r2_avg: AVG(I(R2))=-6.73087970427e-06 FROM 0 TO 0.01
i_r2_pp: PP(I(R2))=0 FROM 0 TO 0.01
i_r3_max: MAX(I(R3))=0.000921734084841 FROM 0 TO 0.01
i_r3_min: MIN(I(R3))=0.000921734084841 FROM 0 TO 0.01
i_r3_rms: RMS(I(R3))=0.000921734084841 FROM 0 TO 0.01
i_r3_avg: AVG(I(R3))=0.000921734084841 FROM 0 TO 0.01
i_r3_pp: PP(I(R3))=0 FROM 0 TO 0.01
i_r4_max: MAX(I(R4))=0.000915162963793 FROM 0 TO 0.01
i_r4_min: MIN(I(R4))=0.000915162963793 FROM 0 TO 0.01
i_r4_rms: RMS(I(R4))=0.000915162963793 FROM 0 TO 0.01
i_r4_avg: AVG(I(R4))=0.000915162963793 FROM 0 TO 0.01
i_r4_pp: PP(I(R4))=0 FROM 0 TO 0.01
i_r5_max: MAX(I(R5))=0.00249997503124 FROM 0 TO 0.01
i_r5_min: MIN(I(R5))=0.00249997503124 FROM 0 TO 0.01
i_r5_rms: RMS(I(R5))=0.00249997503124 FROM 0 TO 0.01
i_r5_avg: AVG(I(R5))=0.00249997503124 FROM 0 TO 0.01
i_r5_pp: PP(I(R5))=0 FROM 0 TO 0.01
i_r6_max: MAX(I(R6))=0.00250002508983 FROM 0 TO 0.01
i_r6_min: MIN(I(R6))=0.00250002508983 FROM 0 TO 0.01
i_r6_rms: RMS(I(R6))=0.00250002508983 FROM 0 TO 0.01
i_r6_avg: AVG(I(R6))=0.00250002508983 FROM 0 TO 0.01
i_r6_pp: PP(I(R6))=0 FROM 0 TO 0.01
i_r7_max: MAX(I(R7))=0.000292385491775 FROM 0 TO 0.01
i_r7_min: MIN(I(R7))=0.000292385491775 FROM 0 TO 0.01
i_r7_rms: RMS(I(R7))=0.000292385491775 FROM 0 TO 0.01
i_r7_avg: AVG(I(R7))=0.000292385491775 FROM 0 TO 0.01
i_r7_pp: PP(I(R7))=0 FROM 0 TO 0.01
i_r8_max: MAX(I(R8))=0.000491439714096 FROM 0 TO 0.01
i_r8_min: MIN(I(R8))=0.000491439714096 FROM 0 TO 0.01
i_r8_rms: RMS(I(R8))=0.000491439714097 FROM 0 TO 0.01
i_r8_avg: AVG(I(R8))=0.000491439714096 FROM 0 TO 0.01
i_r8_pp: PP(I(R8))=0 FROM 0 TO 0.01
i_r9_max: MAX(I(R9))=0.000199054251425 FROM 0 TO 0.01
i_r9_min: MIN(I(R9))=0.000199054251425 FROM 0 TO 0.01
i_r9_rms: RMS(I(R9))=0.000199054251425 FROM 0 TO 0.01
i_r9_avg: AVG(I(R9))=0.000199054251425 FROM 0 TO 0.01
i_r9_pp: PP(I(R9))=0 FROM 0 TO 0.01
i_v2_max: MAX(I(V2))=0.0476420335472 FROM 0 TO 0.01
i_v2_min: MIN(I(V2))=0.0476420335472 FROM 0 TO 0.01
i_v2_rms: RMS(I(V2))=0.0476420335472 FROM 0 TO 0.01
i_v2_avg: AVG(I(V2))=0.0476420335472 FROM 0 TO 0.01
i_v2_pp: PP(I(V2))=0 FROM 0 TO 0.01
i_v3_max: MAX(I(V3))=0.00337660638615 FROM 0 TO 0.01
i_v3_min: MIN(I(V3))=0.00337660638615 FROM 0 TO 0.01
i_v3_rms: RMS(I(V3))=0.00337660638616 FROM 0 TO 0.01
i_v3_avg: AVG(I(V3))=0.00337660638616 FROM 0 TO 0.01
i_v3_pp: PP(I(V3))=0 FROM 0 TO 0.01
