LTspice 26.0.1 for Windows
Circuit: C:\ft\ltspice_llm_pipeline_vnext_20260303\pipeline\out_all_labs_rich_v1_train\Lab8_CD\golden\Lab8_CD__golden.cir
Start Time: Thu Mar 26 19:14:34 2026
solver = Normal
Maximum thread count: 24
tnom = 27
temp = 27
method = trap
Direct Newton iteration succeeded in finding operating point.
Total elapsed time: 0.030 seconds.

Files loaded:
C:\ft\ltspice_llm_pipeline_vnext_20260303\pipeline\out_all_labs_rich_v1_train\Lab8_CD\golden\Lab8_CD__golden.cir
C:\Users\bchar\OneDrive\Documents\LTspice\LM741.lib

v_n001_max: MAX(V(N001))=0.999126911163 FROM 0 TO 0.01
v_n001_min: MIN(V(N001))=-1.00087463856 FROM 0 TO 0.01
v_n001_rms: RMS(V(N001))=0.96935312963 FROM 0 TO 0.01
v_n001_avg: AVG(V(N001))=-0.000673805411007 FROM 0 TO 0.01
v_n001_pp: PP(V(N001))=2.00000154972 FROM 0 TO 0.01
v_n002_max: MAX(V(N002))=1.00084590912 FROM 0 TO 0.01
v_n002_min: MIN(V(N002))=-1.00096797943 FROM 0 TO 0.01
v_n002_rms: RMS(V(N002))=0.953669629866 FROM 0 TO 0.01
v_n002_avg: AVG(V(N002))=-0.000547641085926 FROM 0 TO 0.01
v_n002_pp: PP(V(N002))=2.00181388855 FROM 0 TO 0.01
v_n003_max: MAX(V(N003))=5 FROM 0 TO 0.01
v_n003_min: MIN(V(N003))=5 FROM 0 TO 0.01
v_n003_rms: RMS(V(N003))=5 FROM 0 TO 0.01
v_n003_avg: AVG(V(N003))=5 FROM 0 TO 0.01
v_n003_pp: PP(V(N003))=0 FROM 0 TO 0.01
v_n004_max: MAX(V(N004))=1 FROM 0 TO 0.01
v_n004_min: MIN(V(N004))=-1 FROM 0 TO 0.01
v_n004_rms: RMS(V(N004))=0.9999331621 FROM 0 TO 0.01
v_n004_avg: AVG(V(N004))=0.000199999999653 FROM 0 TO 0.01
v_n004_pp: PP(V(N004))=2 FROM 0 TO 0.01
v_n005_max: MAX(V(N005))=0.998253703117 FROM 0 TO 0.01
v_n005_min: MIN(V(N005))=-1.00174891949 FROM 0 TO 0.01
v_n005_rms: RMS(V(N005))=0.953645322023 FROM 0 TO 0.01
v_n005_avg: AVG(V(N005))=-0.00154761165718 FROM 0 TO 0.01
v_n005_pp: PP(V(N005))=2.0000026226 FROM 0 TO 0.01
v_n006_max: MAX(V(N006))=-5 FROM 0 TO 0.01
v_n006_min: MIN(V(N006))=-5 FROM 0 TO 0.01
v_n006_rms: RMS(V(N006))=5 FROM 0 TO 0.01
v_n006_avg: AVG(V(N006))=-5 FROM 0 TO 0.01
v_n006_pp: PP(V(N006))=0 FROM 0 TO 0.01
i_c1_max: MAX(I(C1))=4.87328215968e-05 FROM 0 TO 0.01
i_c1_min: MIN(I(C1))=-4.87256183987e-05 FROM 0 TO 0.01
i_c1_rms: RMS(I(C1))=1.15098981399e-05 FROM 0 TO 0.01
i_c1_avg: AVG(I(C1))=1.64663459886e-14 FROM 0 TO 0.01
i_c1_pp: PP(I(C1))=9.74584399955e-05 FROM 0 TO 0.01
i_c2_max: MAX(I(C2))=0.000131106833578 FROM 0 TO 0.01
i_c2_min: MIN(I(C2))=-0.000131228327518 FROM 0 TO 0.01
i_c2_rms: RMS(I(C2))=1.14969791285e-05 FROM 0 TO 0.01
i_c2_avg: AVG(I(C2))=3.27185087912e-14 FROM 0 TO 0.01
i_c2_pp: PP(I(C2))=0.000262335161096 FROM 0 TO 0.01
i_r1_max: MAX(I(R1))=0.00013171788305 FROM 0 TO 0.01
i_r1_min: MIN(I(R1))=-0.000131895794766 FROM 0 TO 0.01
i_r1_rms: RMS(I(R1))=1.62644402069e-05 FROM 0 TO 0.01
i_r1_avg: AVG(I(R1))=-5.78679746488e-08 FROM 0 TO 0.01
i_r1_pp: PP(I(R1))=0.000263613677816 FROM 0 TO 0.01
i_r2_max: MAX(I(R2))=4.86712015118e-05 FROM 0 TO 0.01
i_r2_min: MIN(I(R2))=-4.87935794808e-05 FROM 0 TO 0.01
i_r2_rms: RMS(I(R2))=1.15106613864e-05 FROM 0 TO 0.01
i_r2_avg: AVG(I(R2))=-5.78679714776e-08 FROM 0 TO 0.01
i_r2_pp: PP(I(R2))=9.74647809926e-05 FROM 0 TO 0.01
i_v1_max: MAX(I(V1))=-0.0014085478615 FROM 0 TO 0.01
i_v1_min: MIN(I(V1))=-0.00153974432033 FROM 0 TO 0.01
i_v1_rms: RMS(I(V1))=0.00145131131457 FROM 0 TO 0.01
i_v1_avg: AVG(I(V1))=-0.00145129920072 FROM 0 TO 0.01
i_v1_pp: PP(I(V1))=0.000131196458824 FROM 0 TO 0.01
i_v2_max: MAX(I(V2))=0.00153982895426 FROM 0 TO 0.01
i_v2_min: MIN(I(V2))=0.00140869035386 FROM 0 TO 0.01
i_v2_rms: RMS(I(V2))=0.00145136915071 FROM 0 TO 0.01
i_v2_avg: AVG(I(V2))=0.00145135707653 FROM 0 TO 0.01
i_v2_pp: PP(I(V2))=0.000131138600409 FROM 0 TO 0.01
i_v3_max: MAX(I(V3))=0.000131718348712 FROM 0 TO 0.01
i_v3_min: MIN(I(V3))=-0.000131895794766 FROM 0 TO 0.01
i_v3_rms: RMS(I(V3))=1.6264440296e-05 FROM 0 TO 0.01
i_v3_avg: AVG(I(V3))=-5.78679629247e-08 FROM 0 TO 0.01
i_v3_pp: PP(I(V3))=0.000263614143478 FROM 0 TO 0.01
